!----------------------------------------------------------------------------------
! Users should add all user specific namelist changes below in the form of 
!   namelist_var = new_namelist_value 
! Note - that it does not matter what namelist group the namelist_var belongs to
!----------------------------------------------------------------------------------

r_snw = 1.50
dt_mlt = 1.0
histfreq = 'm', 'x', 'x', 'x', 'x'
histfreq_n = 1, 0, 0, 0, 0
f_CMIP = 'mxxxx'
