n_salt_trans_requested = .true.
moc_requested = .true.
n_heat_trans_requested = .true.
n_tavg_streams = 1
ltavg_ignore_extra_streams = .true.
ltavg_one_time_header = .false. 
ltavg_streams_index_present = .true.
tavg_file_freq = 1
tavg_file_freq_opt = 'nmonth'
tavg_fmt_in = 'nc'
tavg_fmt_out = 'nc'
tavg_freq = 1
tavg_freq_opt = 'nmonth'
tavg_offset_days = 2
tavg_offset_months = 1
tavg_offset_years = 1
tavg_start = 0
tavg_start_opt = 'nstep'
tavg_stream_filestrings = 'nmonth1'